*$
** LMR14006x
*****************************************************************************
* (C) Copyright 2013 Texas Instruments Incorporated. All rights reserved.
*****************************************************************************
** This model is designed as an aid for customers of Texas Instruments.
** TI and its licensors and suppliers make no warranties, either expressed
** or implied, with respect to this model, including the warranties of
** merchantability or fitness for a particular purpose. The model is
** provided solely on an "as is" basis. The entire risk as to its quality
** and performance is with the customer
*****************************************************************************
*
* Released by: WEBENCH Design Center, Texas Instruments Inc.
* Part: LMR14006x
* Date: 22OCT2013
* Model Type: Transient
* Simulator: PSpice
* Simulator Version: 16.2
* EVM Order Number: LMR14003YEVM
* EVM Users Guide: SNVV311
* Datasheet: SNVSA10
* Model Version: Final 1.00
*
*****************************************************************************
*
* Updates:
*
* Final 1.00
* 
*

***************************************
.SUBCKT LMR14006x SW SHDNZ VIN FB1 BOOT GND


R_R7         0 N16602777  225k  
G_U4_ABMI5         SS 0 VALUE { {IF(V(SS_DISCH) >2.5, 1.25m,0)}    }
V_U4_V70         U4_N7397984 0 1.7
C_U4_C14         0 VREF_GM  1n  
R_U4_R15         U4_N7398466 U4_N7398492  1  
R_U4_R14         U4_N7398284 VREF_GM  1  
D_U4_D62         SS U4_N7397984 D_D1 
D_U4_D63         0 SS D_D1 
C_U4_C15         0 U4_N7398492  100n  
X_U4_U1         SDWN U4_N7406804 INV_BASIC_GEN PARAMS: VDD=1 VSS=0
+  VTHRESH=500E-3
E_U4_ABM180         U4_N7398466 0 VALUE { IF(V(OCB) > 0.5,1,0)    }
C_U4_C8         0 SS  0.01p  
X_U4_S68    U4_N7398492 0 SS 0 SoftStart_U4_S68 
E_U4_ABM177         U4_N7421796 0 VALUE { IF(V(SS) < 499m, V(SS) - 34.4m,  
+ IF(V(SS) > 1500m, 0.8,  
+ V(SS) - ((0.6633*V(SS)*V(SS)) -(0.6493*V(SS)) + 0.1802)))  }
G_U4_ABMII1         U4_N7397984 SS VALUE { {IF(V(U4_N7406804) > 0.5,2u,0)}    }
E_U4_ABM178         U4_N7398284 0 VALUE { IF(V(SS) < 0.765, V(SS),0.765)    }
R_U11_R287         U11_N16580305 0  1k  
E_U11_ABM173         SS_DISCH 0 VALUE { {IF(V(SS)  < 54m,0,  
+ IF(V(U11_N16580305) > 0.5,1,0))}   }
X_U11_U603         SDWN U11_N16580367 INV_BASIC_GEN PARAMS: VDD=1 VSS=0
+  VTHRESH=500E-3
V_U11_V64         U11_N6045018 0 3.5
V_U11_V65         U11_N165713063 0 0.3
X_U11_U604         ENAB U11_N16496294 INV_BASIC_GEN PARAMS: VDD=1 VSS=0
+  VTHRESH=500E-3
X_U11_U615         U11_N6045018 VIN U11_N165713063 UVLO COMPHYS_BASIC_GEN
+  PARAMS: VDD=1 VSS=0 VTHRESH=0.5
C_U11_C164         U11_N16580305 U11_N16580367  140.5p  
X_U11_U601         U11_N16496294 UVLO SDWN OR2_BASIC_GEN PARAMS: VDD=1 VSS=0
+  VTHRESH=500E-3
X_U6_U599         MUXCLK U6_N16489527 INV_DELAY_BASIC_GEN PARAMS: VDD=1 VSS=0
+  VTHRESH=0.5 DELAY=15n
E_U6_ABM151         U6_N16489395 0 VALUE { {IF(V(PWM_FINAL) > 0.5, 1,0)}    }
X_U6_S26    U6_N16543632 0 U6_VRAMPIN 0 GmIphase_U6_S26 
X_U6_U606         PWM_CLK N16614086 U6_CLK_WIDER SET1 U6_PWM SET1
+  DFFSBRB_NODELAY PARAMS:  VDD=1 VSS=0 VTHRESH=0.5
X_U6_U605         U6_PWM U6_N16637842 N16653532 AND2_BASIC_GEN PARAMS: VDD=1
+  VSS=0 VTHRESH=500E-3
E_U6_ABM163         U6_N16502082 0 VALUE { LIMIT(((V(U6_N16488977) -
+  V(U6_VRAMP)) * 10)  
+ -9u,-11u,144u)   }
E_U6_ABM148         U6_N16489469 0 VALUE { {V(U6_VRAMPIN)*1u}    }
V_U6_V81         U6_N16661959 0 0.56
E_U6_ABM152         U6_ISWF 0 VALUE { {IF(V(U6_N16489275) > 0.5,  
+ V(ISW),0.079)}   }
X_U6_U604         COMP U6_N16637112 U6_N16637842 COMP_BASIC_GEN PARAMS: VDD=1
+  VSS=0 VTHRESH=0.5
C_U6_C134         0 U6_VRAMPIN  1n  
X_U6_U600         U6_ICTRL U6_ISWF U6_COM_PULSE COMP_BASIC_GEN PARAMS: VDD=1
+  VSS=0 VTHRESH=0.5
R_U6_R255         U6_N16489395 U6_N16489275  14.4k  
X_U6_U602         U6_COM_PULSE BOOT_UVLO U6_OVTP U6_PWM AND3_BASIC_GEN PARAMS:
+  VDD=1 VSS=0 VTHRESH=500E-3
E_U6_ABM165         U6_N16531938 0 VALUE { (V(U6_N16502082) * 8.33k)    }
D_U6_D58         U6_N16489275 U6_N16489395 D_D1 
R_U6_R256         U6_N16531938 U6_ICTRL  1  
V_U6_V80         U6_N16637112 0 0.56
C_U6_C147         0 U6_ICTRL  1n  
R_U6_R239         U6_N16489469 U6_VRAMP  1  
V_U6_V79         U6_N16489001 0 0.856
E_U6_ABM153         U6_CLK_WIDER 0 VALUE { {IF(V(MUXCLK) > 0.05, 1,0)}    }
C_U6_C135         0 U6_VRAMP  1n  
E_U6_ABM164         U6_N16488977 0 VALUE { {((V(COMP) /100k)  - 5u)*3}    }
X_U6_U607         N16662685 N16662844 U6_N16661959 SET1 U6_N16661959 SET1
+  DFFSBRB_RHPBASIC_GEN PARAMS: VDD=1 VSS=0 VTHRESH=500E-3
G_U6_ABMI4         U6_VRAMPIN 0 VALUE { {V(IF2IA) * -1.0}    }
C_U6_C146         0 U6_N16489275  5p  
X_U6_U134         U6_N16564386 SDWN U6_N16543632 OR2_BASIC_GEN PARAMS: VDD=1
+  VSS=0 VTHRESH=500E-3
X_U6_U601         U6_N16489001 VSENSEINT U6_OVTP COMP_BASIC_GEN PARAMS: VDD=1
+  VSS=0 VTHRESH=0.5
X_U6_U598         MUXCLK U6_N16489527 U6_N16564386 AND2_BASIC_GEN PARAMS: VDD=1
+  VSS=0 VTHRESH=500E-3
X_U7_U623         U7_N16509288 U7_INDELAYED2 d_d PARAMS:
X_U7_U620         U7_N16489522 U7_INDELAYED1 d_d PARAMS:
X_U7_U827         U7_N16509390 PWM_CLK U7_N16509288 AND2_BASIC_GEN PARAMS:
+  VDD=1 VSS=0 VTHRESH=500E-3
C_U7_C171         0 U7_N16490100  1n  
R_U7_R276         U7_N16509288 U7_INDELAYED2  11.544k  
X_U7_U824         U7_N16489522 U7_INDELAYED1 PWM_CLK U7_OR2OUT1 OR3_BASIC_GEN
+  PARAMS: VDD=1 VSS=0 VTHRESH=500E-3
X_U7_U825         U7_N16509288 U7_INDELAYED2 PWM_CLK U7_OR2OUT2 OR3_BASIC_GEN
+  PARAMS: VDD=1 VSS=0 VTHRESH=500E-3
X_U7_U826         PWM_CLK U7_N16509390 INV_DELAY_BASIC_GEN PARAMS: VDD=1 VSS=0
+  VTHRESH=0.5 DELAY=15n
R_U7_R272         U7_N16489522 U7_INDELAYED1  11.544k  
R_U7_R273         U7_N16489586 U7_N16490100  1  
E_U7_ABM13         U7_N16489586 0 VALUE { IF(V(COMP) <0.567 ,1,0)    }
X_U7_U823         U7_N16497188 PWM_CLK U7_N16489522 AND2_BASIC_GEN PARAMS:
+  VDD=1 VSS=0 VTHRESH=500E-3
C_U7_C172         0 U7_INDELAYED1  2p  
X_U7_U6         U7_OR2OUT1 U7_OR2OUT2 U7_N16490100 PWM_FINAL MUX2_BASIC_GEN
+  PARAMS: VDD=1 VSS=0 VTHRESH=0.5
C_U7_C177         0 U7_INDELAYED2  8p  
X_U7_U822         PWM_CLK U7_N16497188 INV_DELAY_BASIC_GEN PARAMS: VDD=1 VSS=0
+  VTHRESH=0.5 DELAY=15n
X_U3_S26    U3_N16517226 0 U3_RAMP 0 Oscillator_U3_S26 
X_U3_U2         FB1 U3_N16664451 FreqPolyVal
X_U3_U131         U3_RAMP U3_N16505459 MUXCLK COMP_BASIC_GEN PARAMS: VDD=1
+  VSS=0 VTHRESH=0.5
V_U3_V45         U3_N16490102 0 5
X_U3_H1    U3_N16489962 U3_N16670466 I_RT 0 Oscillator_U3_H1 
R_U3_R276         0 U3_N16489962  500MEG  
R_U3_R277         U3_N16489962 RT  1  
X_U3_U133         MUXCLK U3_N16518846 INV_DELAY_BASIC_GEN PARAMS: VDD=1 VSS=0
+  VTHRESH=0.5 DELAY=5n
V_U3_V46         U3_N16505459 0 2.5
D_U3_D11         U3_RAMP U3_N16490102 D_D1 
E_U3_E1         U3_N16669101 0 U3_N16668754 0 1
R_U3_R278         I_RT 0  1  
G_U3_ABMI3         U3_N16490102 U3_RAMP VALUE { {-( I(V_U3_V44)*1.1) }    }
C_U3_C79         U3_RAMP 0  2p  
E_U3_ABM5         U3_N16668754 0 VALUE { (V(U3_N16664451)/1087)*0.5    }
X_U3_U132         U3_N16518846 U3_N16517387 INV_DELAY_BASIC_GEN PARAMS: VDD=1
+  VSS=0 VTHRESH=0.5 DELAY=5n
V_U3_V44         U3_N16670466 U3_N16669101 0
X_U3_U134         SDWN U3_N16517387 U3_N16517226 OR2_BASIC_GEN PARAMS: VDD=1
+  VSS=0 VTHRESH=500E-3
C_C8         0 SS  2.2n  
V_V46         SET1 0 1
R_U22_R282         U22_N16685295 VSENSEINT  1  
E_U22_ABM166         U22_N16696882 0 VALUE { V(SHDNZ)    }
E_U22_ABM165         U22_N16696624 0 VALUE { V(I_RT)*3520    }
C_U22_C159         0 VSENSEINT  1n  
E_U22_ABM164         U22_N16685295 0 VALUE { V(FB1)    }
C_U22_C160         0 IF2IA  1n  
R_U22_R277         U22_N16696624 IF2IA  1  
C_U5_C166         0 U5_N16595447  1n  
X_U5_U615         SS U5_N165954771 PolyVal
R_U5_R4         0 COMP  125Meg  
C_U5_C9         0 OCB  1n  
D_U5_D10         COMP U5_N16513008 D_D1 
D_U5_D11         U5_N16513014 COMP D_D1 
R_U5_R293         U5_N16690785 U5_VGM  1  
R_U5_R292         U5_N16684293 U5_N16684253  1  
E_U5_ABM178         U5_N16690785 0 VALUE { IF(V(U5_N16690763) <19.9u, 19.9u,
+  IF(V(U5_N16690763) > 80u, 80u,V(U5_N16690763)))    }
E_U5_ABM177         U5_N16684293 0 VALUE { IF(V(U5_N16684271) <9.9u, 9.9u,
+  IF(V(U5_N16684271) > 40u, 40u,V(U5_N16684271)))    }
C_U5_C163         0 U5_N16690763  1n  
R_U5_R11         U5_N16513160 OCB  1  
E_U5_ABM172         U5_N16690779 0 VALUE { {IF(V(SS) < 0.4, 19.9u, (50u *V(SS)
+  -15u))}    }
G_U5_ABM2I1         0 COMP VALUE { {LIMIT((V(VREF_GM) -
+  V(VSENSEINT))*V(U5_VGM), -10u,10u)}    }
C_U5_C162         0 U5_N16684271  1n  
X_U5_S5    UVLO 0 COMP 0 ErrorAmp_U5_S5 
V_U5_V6         U5_N16513008 0 2.1
E_U5_ABM171         U5_N16684287 0 VALUE { {IF(V(SS) < 0.4, 9.9u, (43u *V(SS)
+  -7.3u))}    }
R_U5_R287         U5_N16690779 U5_N16690763  1  
R_U5_R286         U5_N16684287 U5_N16684271  1  
E_U5_ABM8         U5_N16513186 0 VALUE { {IF(V(COMP) > 2.0,1,0)}    }
C_U5_C169         0 U5_VGM  1n  
V_U5_V5         U5_N16513014 0 0.56
C_U5_C168         0 U5_N16684253  1n  
X_U5_U603         SDWN U5_N16513124 INV_BASIC_GEN PARAMS: VDD=1 VSS=0
+  VTHRESH=500E-3
R_U5_R290         U5_N165954771 U5_N16595447  1  
X_U5_U614         U5_N16513186 U5_N16513124 U5_N16513160 AND2_BASIC_GEN PARAMS:
+  VDD=1 VSS=0 VTHRESH=500E-3
C_U5_C5         0 COMP  0.18f  
R_U1_R1         U1_N7335540 ENAB  1  
D_U1_D8         SHDNZ U1_N7335522 D_D1 
G_U1_ABMII1         VIN SHDNZ VALUE { {0.9u+ 2.9u*V(ENAB)}    }
R_U1_R256         SHDNZ U1_N7335522  100MEG  
E_U1_ABM1         U1_N7335540 0 VALUE { {IF(V(SHDNZ) <2.5,0,1)}    }
D_U1_D9         SHDNZ VIN D_D1 
C_U1_C1         0 ENAB  1n  
E_U1_ABM173         U1_N7335522 0 VALUE { {IF(V(VIN) > 2.5,5,0)}    }
R_R9         0 RT  100k
C_U8_C9         0 U8_NP  20n IC=0 
X_U8_U607         U8_LDRV ENAB U8_BOOT_ON U8_SDWN_N U8_BOOT_SW_ON
+  AND4_BASIC_GEN PARAMS: VDD=1 VSS=0 VTHRESH=500E-3
D_U8_D13         SW U8_N7273984 D_D1 
G_U8_ABMII2         0 U8_NP VALUE { V(U8_N7397132)    }
X_U8_U589         U8_N16667866 U8_N16667646 MUXCLK U8_SET2 U8_HDRVIN U8_SET2
+  DFFSBRB_RHPBASIC_GEN PARAMS: VDD=1 VSS=0 VTHRESH=500E-3
X_U8_S3    U8_N7274032 0 HDRV SW Driver_U8_S3 
E_U8_ABM2         U8_N73704481 0 VALUE { ((V(U8_OUT) *-500m)+ 6)    }
X_U8_H1    VIN U8_N7273984 ISW 0 Driver_U8_H1 
X_U8_S5    U8_N16667646 0 U8_NP 0 Driver_U8_S5 
X_U8_U611         U8_HDRVIN U8_N7342498 BUF_DELAY_BASIC_GEN PARAMS: VDD=1 VSS=0
+  VTHRESH=0.5 DELAY=10n
E_U8_ABM169         U8_N7347010 0 VALUE { V(BOOT) - V(SW)    }
X_U8_U602         U8_OUT U8_BOOT_ON INV_BASIC_GEN PARAMS: VDD=1 VSS=0
+  VTHRESH=500E-3
X_U8_U605         U8_HDRVIN U8_LDRV INV_BASIC_GEN PARAMS: VDD=1 VSS=0
+  VTHRESH=500E-3
X_U8_U625         U8_DELAYED_SHUTOFF U8_DELAYED_SHUTOFF U8_TURN_ON_HS
+  OR2_BASIC_GEN PARAMS: VDD=1 VSS=0 VTHRESH=500E-3
C_U8_C3         0 U8_N7345383  1n  
X_U8_U619         U8_NP U8_N7385104 U8_TURN_OFF_HS COMP_BASIC_GEN PARAMS: VDD=1
+  VSS=0 VTHRESH=0.5
E_U8_ABM167         U8_N7274256 0 VALUE { {IF((V(BOOT) - V(SW)) < 3.0,0,1)}   
+  }
R_U8_R245         0 BOOT  10MEG  
X_U8_U613         SDWN U8_N7365280 INV_BASIC_GEN PARAMS: VDD=1 VSS=0
+  VTHRESH=500E-3
R_U8_R12         U8_N7385360 U8_DELAYED_SHUTOFF  230  
X_U8_U612         U8_N7274198 U8_N7343256 BUF_DELAY_BASIC_GEN PARAMS: VDD=1
+  VSS=0 VTHRESH=0.5 DELAY=10n
X_U8_S34    U8_BOOT_SW_ON 0 BOOT VIN Driver_U8_S34 
V_U8_V9         U8_N7385104 0 6
X_U8_S2    U8_N7274022 0 BOOT HDRV Driver_U8_S2 
X_U8_U615         U8_TURN_ON_HS U8_TURN_ON_HS N7394912 AND2_BASIC_GEN PARAMS:
+  VDD=1 VSS=0 VTHRESH=500E-3
X_U8_U606         SDWN U8_SDWN_N INV_BASIC_GEN PARAMS: VDD=1 VSS=0
+  VTHRESH=500E-3
X_U8_U614         U8_TURN_OFF_HS U8_N7385360 INV_BASIC_GEN PARAMS: VDD=1 VSS=0
+  VTHRESH=500E-3
R_U8_R244         U8_N7274256 U8_N7274232  1  
C_U8_C140         0 U8_N7274232  1n  
X_U8_U617         U8_DELAYED_SHUTOFF U8_N7274232 BOOT_UVLO AND2_BASIC_GEN
+  PARAMS: VDD=1 VSS=0 VTHRESH=500E-3
X_U8_U608         U8_HDRVIN U8_N7342498 U8_N7274022 AND2_BASIC_GEN PARAMS:
+  VDD=1 VSS=0 VTHRESH=500E-3
X_U8_U609         U8_N7343256 U8_N7274198 U8_N7274032 AND2_BASIC_GEN PARAMS:
+  VDD=1 VSS=0 VTHRESH=500E-3
X_U8_U618         MUXCLK U8_N7399576 U8_N7385186 MONOPOS_PS PARAMS: PW=20n
C_U8_C6         0 U8_DELAYED_SHUTOFF  1n IC=0 
R_U8_R3         U8_N73704481 U8_N7345383  1  
V_U8_V10         U8_SET2 0 1
D_U8_D15         U8_NP U8_N16708149 D_D1 
X_U8_U604         U8_N7365280 PWM_FINAL U8_HDRVIN AND2_BASIC_GEN PARAMS: VDD=1
+  VSS=0 VTHRESH=500E-3
R_U8_R11         0 U8_N7385186  1e8  
X_U8_U610         U8_HDRVIN U8_N7274198 INV_BASIC_GEN PARAMS: VDD=1 VSS=0
+  VTHRESH=500E-3
X_U8_U616         U8_N16667866 U8_N7399576 U8_N7397132 AND2_BASIC_GEN PARAMS:
+  VDD=1 VSS=0 VTHRESH=500E-3
X_U8_S30    HDRV SW U8_N7273984 SW Driver_U8_S30 
X_U8_U5         U8_N7347010 U8_N7345383 U8_OUT COMP_BASIC_GEN PARAMS: VDD=1
+  VSS=0 VTHRESH=0.5
V_U8_V8         U8_N16708149 0 6
C_C3         N16602777 COMP  125p  
R_R1         GND 0  1m  
.IC         V(SS )=0
.IC         V(MUXCLK )=0
.IC         V(U3_N16518846 )=1
.IC         V(U3_RAMP )=0
.ends LMR14006x
*$
.subckt SoftStart_U4_S68 1 2 3 4  
S_U4_S68         3 4 1 2 _U4_S68
RS_U4_S68         1 2 1G
.MODEL         _U4_S68 VSWITCH Roff=100e6 Ron=1046 Voff=0.2 Von=0.8
.ends SoftStart_U4_S68
*$
.subckt GmIphase_U6_S26 1 2 3 4  
S_U6_S26         3 4 1 2 _U6_S26
RS_U6_S26         1 2 1G
.MODEL         _U6_S26 VSWITCH Roff=100e6 Ron=10m Voff=0.2 Von=0.8
.ends GmIphase_U6_S26
*$
.subckt Oscillator_U3_S26 1 2 3 4  
S_U3_S26         3 4 1 2 _U3_S26
RS_U3_S26         1 2 1G
.MODEL         _U3_S26 VSWITCH Roff=100e6 Ron=1.0 Voff=0.2 Von=0.8
.ends Oscillator_U3_S26
*$
.subckt Oscillator_U3_H1 1 2 3 4  
H_U3_H1         3 4 VH_U3_H1 -1
VH_U3_H1         1 2 0V
.ends Oscillator_U3_H1
*$
.subckt ErrorAmp_U5_S5 1 2 3 4  
S_U5_S5         3 4 1 2 _U5_S5
RS_U5_S5         1 2 1G
.MODEL         _U5_S5 VSWITCH Roff=1e6 Ron=1m Voff=0.1 Von=0.9
.ends ErrorAmp_U5_S5
*$
.subckt Driver_U8_S3 1 2 3 4  
S_U8_S3         3 4 1 2 _U8_S3
RS_U8_S3         1 2 1G
.MODEL         _U8_S3 VSWITCH Roff=1e6 Ron=1.0 Voff=0.2 Von=0.8
.ends Driver_U8_S3
*$
.subckt Driver_U8_H1 1 2 3 4  
H_U8_H1         3 4 VH_U8_H1 1
VH_U8_H1         1 2 0V
.ends Driver_U8_H1
*$
.subckt Driver_U8_S5 1 2 3 4  
S_U8_S5         3 4 1 2 _U8_S5
RS_U8_S5         1 2 1G
.MODEL         _U8_S5 VSWITCH Roff=1e6 Ron=1m Voff=0.25 Von=0.75
.ends Driver_U8_S5
*$
.subckt Driver_U8_S34 1 2 3 4  
S_U8_S34         3 4 1 2 _U8_S34
RS_U8_S34         1 2 1G
.MODEL         _U8_S34 VSWITCH Roff=1000e6 Ron=15 Voff=0.2 Von=0.8
.ends Driver_U8_S34
*$
.subckt Driver_U8_S2 1 2 3 4  
S_U8_S2         3 4 1 2 _U8_S2
RS_U8_S2         1 2 1G
.MODEL         _U8_S2 VSWITCH Roff=1e6 Ron=2 Voff=0.2 Von=0.8
.ends Driver_U8_S2
*$
.subckt Driver_U8_S30 1 2 3 4  
S_U8_S30         3 4 1 2 _U8_S30
RS_U8_S30         1 2 1G
.MODEL         _U8_S30 VSWITCH Roff=10e6 Ron=168m Voff=1.0 Von=1.2
.ends Driver_U8_S30
** Wrapper definitions for AA legacy 
***************************************************************
*************************$$$$$*********************************
***************************************************************
***************************************************************
*$
.model D_D1 d
+ is=1e-015
+ tt=1e-011
+ rs=0.05
+ n=0.1
+ vj=0.01
*$
.subckt d_d 1 2
d1 1 2 dd1
.model dd1 d
+ is=1e-015
+ tt=1e-011
+ rs=0.05
+ n=0.1
.ends d_d
*$
.SUBCKT D_D1special 1 2
D1 1 2 DD1spec
.MODEL DD1spec D( IS=1e-15 TT=10p Rs=0.23 N=.1 VJ=10m )
.ENDS D_D1special
*$
.SUBCKT COMP_BASIC_GEN INP INM Y PARAMS: VDD=1 VSS=0 VTHRESH=0.5	
E_ABM Yint 0 VALUE {IF (V(INP) > 
+ V(INM), {VDD},{VSS})}
R1 Yint Y 1
C1 Y 0 1n
.ENDS COMP_BASIC_GEN
*$
.SUBCKT COMPHYS_BASIC_GEN INP INM HYS OUT PARAMS: VDD=1 VSS=0 VTHRESH=0.5	
EIN INP1 INM1 INP INM 1 
EHYS INP1 INP2 VALUE { IF( V(1) > {VTHRESH},-V(HYS),0) }
EOUT OUT 0 VALUE { IF( V(INP2)>V(INM1), {VDD} ,{VSS}) }
R1 OUT 1 1
C1 1 0 5.0n
RINP1 INP1 0 1K
.ENDS COMPHYS_BASIC_GEN
*$
.SUBCKT COMPHYS2_BASIC_GEN INP INM HYS OUT PARAMS: VDD=1 VSS=0 VTHRESH=0.5	
+ T=10
EIN INP1 INM1 INP INM 1 
EHYS INM2 INM1 VALUE { IF( V(1) > {VTHRESH},-V(HYS)/2,V(HYS)/2) }
EOUT OUT 0 VALUE { IF( V(INP1)>V(INM2), {VDD} ,{VSS}) }
R1 OUT 1 1
C1 1 0 {T*1e-9}
RINP1 INP1 0 10K
RINM2 INM2 0 10K
.ENDS COMPHYS2_BASIC_GEN
*$
.SUBCKT AND2_BASIC_GEN A B Y PARAMS: VDD=1 VSS=0 VTHRESH=0.5 
E_ABMGATE    YINT 0 VALUE {{IF(V(A) > {VTHRESH}  &  
+ V(B) > {VTHRESH},{VDD},{VSS})}}
RINT YINT Y 1
CINT Y 0 1n
.ENDS AND2_BASIC_GEN
*$
.SUBCKT AND3_BASIC_GEN A B C Y PARAMS: VDD=1 VSS=0 VTHRESH=0.5 
E_ABMGATE    YINT 0 VALUE {{IF(V(A) > {VTHRESH}  &  
+ V(B) > {VTHRESH} &
+ V(C) > {VTHRESH},{VDD},{VSS})}}
RINT YINT Y 1
CINT Y 0 1n
.ENDS AND3_BASIC_GEN
*$
.SUBCKT AND4_BASIC_GEN A B C D Y PARAMS: VDD=1 VSS=0 VTHRESH=0.5 
E_ABMGATE    YINT 0 VALUE {{IF(V(A) > {VTHRESH}  &  
+ V(B) > {VTHRESH} &
+ V(C) > {VTHRESH} &
+ V(D) > {VTHRESH},{VDD},{VSS})}}
RINT YINT Y 1
CINT Y 0 1n
.ENDS AND4_BASIC_GEN
*$
.SUBCKT NAND2_BASIC_GEN A B Y PARAMS: VDD=1 VSS=0 VTHRESH=0.5 
E_ABMGATE    YINT 0 VALUE {{IF(V(A) > {VTHRESH}  &  
+ V(B) > {VTHRESH},{VSS},{VDD})}}
RINT YINT Y 1
CINT Y 0 1n
.ENDS NAND2_BASIC_GEN
*$
.SUBCKT NAND3_BASIC_GEN A B C Y PARAMS: VDD=1 VSS=0 VTHRESH=0.5 
E_ABMGATE    YINT 0 VALUE {{IF(V(A) > {VTHRESH}  &  
+ V(B) > {VTHRESH} &
+ V(C) > {VTHRESH},{VSS},{VDD})}}
RINT YINT Y 1
CINT Y 0 1n
.ENDS NAND3_BASIC_GEN
*$
.SUBCKT NAND4_BASIC_GEN A B C D Y PARAMS: VDD=1 VSS=0 VTHRESH=0.5 
E_ABMGATE    YINT 0 VALUE {{IF(V(A) > {VTHRESH}  &  
+ V(B) > {VTHRESH} &
+ V(C) > {VTHRESH} &
+ V(D) > {VTHRESH},{VSS},{VDD})}}
RINT YINT Y 1
CINT Y 0 1n
.ENDS NAND4_BASIC_GEN
*$
.SUBCKT OR2_BASIC_GEN A B Y PARAMS: VDD=1 VSS=0 VTHRESH=0.5 
E_ABMGATE    YINT 0 VALUE {{IF(V(A) > {VTHRESH}  |  
+ V(B) > {VTHRESH},{VDD},{VSS})}}
RINT YINT Y 1
CINT Y 0 1n
.ENDS OR2_BASIC_GEN
*$
.SUBCKT OR3_BASIC_GEN A B C Y PARAMS: VDD=1 VSS=0 VTHRESH=0.5 
E_ABMGATE    YINT 0 VALUE {{IF(V(A) > {VTHRESH}  |  
+ V(B) > {VTHRESH} |
+ V(C) > {VTHRESH},{VDD},{VSS})}}
RINT YINT Y 1
CINT Y 0 1n
.ENDS OR3_BASIC_GEN
*$
.SUBCKT OR4_BASIC_GEN A B C D Y PARAMS: VDD=1 VSS=0 VTHRESH=0.5 
E_ABMGATE    YINT 0 VALUE {{IF(V(A) > {VTHRESH}  |  
+ V(B) > {VTHRESH} |
+ V(C) > {VTHRESH} |
+ V(D) > {VTHRESH},{VDD},{VSS})}}
RINT YINT Y 1
CINT Y 0 1n
.ENDS OR4_BASIC_GEN
*$
.SUBCKT NOR2_BASIC_GEN A B Y PARAMS: VDD=1 VSS=0 VTHRESH=0.5 
E_ABMGATE    YINT 0 VALUE {{IF(V(A) > {VTHRESH}  |  
+ V(B) > {VTHRESH},{VSS},{VDD})}}
RINT YINT Y 1
CINT Y 0 1n
.ENDS NOR2_BASIC_GEN
*$
.SUBCKT NOR3_BASIC_GEN A B C Y PARAMS: VDD=1 VSS=0 VTHRESH=0.5 
E_ABMGATE    YINT 0 VALUE {{IF(V(A) > {VTHRESH}  |  
+ V(B) > {VTHRESH} |
+ V(C) > {VTHRESH},{VSS},{VDD})}}
RINT YINT Y 1
CINT Y 0 1n
.ENDS NOR3_BASIC_GEN
*$
.SUBCKT NOR4_BASIC_GEN A B C D Y PARAMS: VDD=1 VSS=0 VTHRESH=0.5 
E_ABMGATE    YINT 0 VALUE {{IF(V(A) > {VTHRESH}  |  
+ V(B) > {VTHRESH} |
+ V(C) > {VTHRESH} |
+ V(D) > {VTHRESH},{VSS},{VDD})}}
RINT YINT Y 1
CINT Y 0 1n
.ENDS NOR4_BASIC_GEN
*$
.SUBCKT NOR5_BASIC_GEN A B C D E Y PARAMS: VDD=1 VSS=0 VTHRESH=0.5 
E_ABMGATE YINT 0 VALUE {{IF(V(A) > {VTHRESH}  |  
+ V(B) > {VTHRESH} |
+ V(C) > {VTHRESH} |
+ V(D) > {VTHRESH} |
+ V(E) > {VTHRESH},{VSS},{VDD})}}
RINT YINT Y 1
CINT Y 0 1n
.ENDS NOR5_BASIC_GEN
*$
.SUBCKT NOR6_BASIC_GEN A B C D E F Y PARAMS: VDD=1 VSS=0 VTHRESH=0.5 
E_ABMGATE YINT 0 VALUE {{IF(V(A) > {VTHRESH}  |  
+ V(B) > {VTHRESH} |
+ V(C) > {VTHRESH} |
+ V(D) > {VTHRESH} |
+ V(E) > {VTHRESH} |
+ V(F) > {VTHRESH},{VSS},{VDD})}}
RINT YINT Y 1
CINT Y 0 1n
.ENDS NOR6_BASIC_GEN
*$
.SUBCKT INV_BASIC_GEN A  Y PARAMS: VDD=1 VSS=0 VTHRESH=0.5 
E_ABMGATE    YINT 0 VALUE {{IF(V(A) > {VTHRESH} , 
+ {VSS},{VDD})}}
RINT YINT Y 1
CINT Y 0 1n
.ENDS INV_BASIC_GEN
*$
.SUBCKT XOR2_BASIC_GEN A B Y PARAMS: VDD=1 VSS=0 VTHRESH=0.5 
E_ABMGATE  YINT 0 VALUE {{IF(V(A) > {VTHRESH}  ^  
+ V(B) > {VTHRESH},{VDD},{VSS})}}
RINT YINT Y 1
CINT Y 0 1n
.ENDS XOR2_BASIC_GEN
*$
.SUBCKT XNOR2_BASIC_GEN A B Y PARAMS: VDD=1 VSS=0 VTHRESH=0.5 
E_ABMGATE  YINT 0 VALUE {{IF(V(A) > {VTHRESH}  ^  
+ V(B) > {VTHRESH},{VSS},{VDD})}}
RINT YINT Y 1
CINT Y 0 1n
.ENDS XNOR2_BASIC_GEN
*$
.SUBCKT MUX2_BASIC_GEN A B S Y PARAMS: VDD=1 VSS=0 VTHRESH=0.5 
E_ABMGATE  YINT 0 VALUE {{IF(V(S) > {VTHRESH},  
+ V(B),V(A))}}
RINT YINT Y 1
CINT Y 0 1n
.ENDS MUX2_BASIC_GEN
*$
.SUBCKT INV_DELAY_BASIC_GEN A  Y PARAMS: VDD=1 VSS=0 VTHRESH=0.5 DELAY = 10n 
E_ABMGATE1    YINT1 0 VALUE {{IF(V(A) > {VTHRESH} , 
+ {VDD},{VSS})}}
RINT YINT1 YINT2 1
CINT YINT2 0 {DELAY*1.3}
E_ABMGATE2    YINT3 0 VALUE {{IF(V(YINT2) > {VTHRESH} , 
+ {VSS},{VDD})}}
RINT2 YINT3 Y 1
CINT2 Y 0 1n
.ENDS INV_DELAY_BASIC_GEN
*$
.SUBCKT BUF_DELAY_BASIC_GEN A  Y PARAMS: VDD=1 VSS=0 VTHRESH=0.5 DELAY = 10n 
E_ABMGATE1    YINT1 0 VALUE {{IF(V(A) > {VTHRESH} , 
+ {VDD},{VSS})}}
RINT YINT1 YINT2 1
CINT YINT2 0 {DELAY*1.3}
E_ABMGATE2    YINT3 0 VALUE {{IF(V(YINT2) > {VTHRESH} , 
+ {VDD},{VSS})}}
RINT2 YINT3 Y 1
CINT2 Y 0 1n
.ENDS BUF_DELAY_BASIC_GEN
*$
.SUBCKT BUF_BASIC_GEN A  Y PARAMS: VDD=1 VSS=0 VTHRESH=0.5 
E_ABMGATE    YINT 0 VALUE {{IF(V(A) > {VTHRESH} , 
+ {VDD},{VSS})}}
RINT YINT Y 1
CINT Y 0 1n
.ENDS BUF_BASIC_GEN
*$
**Set has higher priority in this latch
.SUBCKT SRLATCHSHP_BASIC_GEN S R Q QB PARAMS: VDD=1 VSS=0 VTHRESH=0.5 
GQ 0 Qint VALUE = {IF(V(S) > {VTHRESH},5,IF(V(R)>{VTHRESH},-5, 0))}
CQint Qint 0 1n
RQint Qint 0 1000MEG
D_D10 Qint MY5 D_D1
V1 MY5 0 {VDD}
D_D11 MYVSS Qint D_D1
V2 MYVSS 0 {VSS} 
EQ Qqq 0 Qint 0 1
X3 Qqq Qqqd1 BUF_BASIC_GEN PARAMS: VDD={VDD} VSS={VSS} VTHRESH={VTHRESH}
RQq Qqqd1 Q 1
EQb Qbr 0 VALUE = {IF( V(Q) > {VTHRESH}, {VSS},{VDD})}
RQb Qbr QB 1 
Cdummy1 Q 0 1n 
Cdummy2 QB 0 1n 
.IC V(Qint) {VSS}
.ENDS SRLATCHSHP_BASIC_GEN
*$
**Reset has higher priority in this latch
.SUBCKT SRLATCHRHP_BASIC_GEN S R Q QB PARAMS: VDD=1 VSS=0 VTHRESH=0.5 
GQ 0 Qint VALUE = {IF(V(R) > {VTHRESH},-5,IF(V(S)>{VTHRESH},5, 0))}
CQint Qint 0 1n
RQint Qint 0 1000MEG
D_D10 Qint MY5 D_D1
V1 MY5 0 {VDD}
D_D11 MYVSS Qint D_D1
V2 MYVSS 0 {VSS} 
EQ Qqq 0 Qint 0 1
X3 Qqq Qqqd1 BUF_BASIC_GEN PARAMS: VDD={VDD} VSS={VSS} VTHRESH={VTHRESH}
RQq Qqqd1 Q 1
EQb Qbr 0 VALUE = {IF( V(Q) > {VTHRESH}, {VSS},{VDD})}
RQb Qbr QB 1 
Cdummy1 Q 0 1n 
Cdummy2 QB 0 1n
.IC V(Qint) {VSS}
.ENDS SRLATCHRHP_BASIC_GEN
*$
**Reset has higher priority in this latch and active low set and reset - basically NAND based SR latch
.SUBCKT SBRBLATCHRHP_BASIC_GEN SB RB Q QB PARAMS: VDD=1 VSS=0 VTHRESH=0.5 
GQ 0 Qint VALUE = {IF(V(RB) < {VTHRESH},-5,IF(V(SB) < {VTHRESH},5, 0))}
CQint Qint 0 1n
RQint Qint 0 1000MEG
D_D10 Qint MY5 D_D1
V1 MY5 0 {VDD}
D_D11 MYVSS Qint D_D1
V2 MYVSS 0 {VSS} 
EQ Qqq 0 Qint 0 1
X3 Qqq Qqqd1 BUF_BASIC_GEN PARAMS: VDD={VDD} VSS={VSS} VTHRESH={VTHRESH}
RQq Qqqd1 Q 1
EQb Qbr 0 VALUE = {IF( V(Q) > {VTHRESH}, {VSS},{VDD})}
RQb Qbr QB 1 
.IC V(Qint) {VSS}
.ENDS SBRBLATCHRHP_BASIC_GEN
*$
**Reset has higher priority in this latch and active low set and reset - basically NAND based SR latch
.SUBCKT SBRBLATCHSHP_BASIC_GEN SB RB Q QB PARAMS: VDD=1 VSS=0 VTHRESH=0.5 
GQ 0 Qint VALUE = {IF(V(SB) < {VTHRESH},5,IF(V(RB) < {VTHRESH},-5, 0))}
CQint Qint 0 1n
RQint Qint 0 1000MEG
D_D10 Qint MY5 D_D1
V1 MY5 0 {VDD}
D_D11 MYVSS Qint D_D1
V2 MYVSS 0 {VSS} 
EQ Qqq 0 Qint 0 1
X3 Qqq Qqqd1 BUF_BASIC_GEN PARAMS: VDD={VDD} VSS={VSS} VTHRESH={VTHRESH}
RQq Qqqd1 Q 1
EQb Qbr 0 VALUE = {IF( V(Q) > {VTHRESH}, {VSS},{VDD})}
RQb Qbr QB 1 
.IC V(Qint) {VSS}
.ENDS SBRBLATCHSHP_BASIC_GEN
*$
.SUBCKT DFFSBRB_SHPBASIC_GEN Q QB CLK D RB SB PARAMS: VDD=1 VSS=0 VTHRESH=0.5 
***Set has higher priority in this
** Changed the delay from 7n/10n to 15n/20n to help larger time step simulations
**Faster flip-flops require a a smaller time step to simulate
X1 CLK CLKdel INV_DELAY_BASIC_GEN PARAMS: VDD={VDD} VSS={VSS} VTHRESH={VTHRESH} DELAY = 15n
X2 CLK CLKdel CLKint AND2_BASIC_GEN PARAMS: VDD={VDD} VSS={VSS} VTHRESH={VTHRESH}
GQ 0 Qint VALUE = {IF(V(SB) < {VTHRESH},5,IF(V(RB)<{VTHRESH},-5, IF(V(CLKint)> {VTHRESH}, 
+ IF(V(D)> {VTHRESH},5,-5),0)))}
CQint Qint 0 1n
RQint Qint 0 1000MEG
D_D10 Qint MY5 D_D1
V1 MY5 0 {VDD}
D_D11 MYVSS Qint D_D1
V2 MYVSS 0 {VSS} 
EQ Qqq 0 Qint 0 1
X3 Qqq Qqqd1 BUF_DELAY_BASIC_GEN PARAMS: VDD={VDD} VSS={VSS} VTHRESH={VTHRESH} DELAY = 20n
RQq Qqqd1 Q 1
EQb Qbr 0 VALUE = {IF( V(Q) > {VTHRESH}, {VSS},{VDD})}
RQb Qbr Qb 1 
Cdummy1 Q 0 1nF 
Cdummy2 QB 0 1nF 
.IC V(Qint) {VSS}
.ENDS DFFSBRB_SHPBASIC_GEN
*$
.SUBCKT DFFSR_SHPBASIC_GEN Q QB CLK D R S PARAMS: VDD=1 VSS=0 VTHRESH=0.5 
***Set has higher priority in this
** Changed the delay from 7n/10n to 15n/20n to help larger time step simulations
**Faster flip-flops require a a smaller time step to simulate
X1 CLK CLKdel INV_DELAY_BASIC_GEN PARAMS: VDD={VDD} VSS={VSS} VTHRESH={VTHRESH} DELAY = 15n
X2 CLK CLKdel CLKint AND2_BASIC_GEN PARAMS: VDD={VDD} VSS={VSS} VTHRESH={VTHRESH} 
GQ 0 Qint VALUE = {IF(V(S) > {VTHRESH},5,IF(V(R) > {VTHRESH},-5, IF(V(CLKint)> {VTHRESH}, 
+ IF(V(D)> {VTHRESH},5,-5),0)))}
CQint Qint 0 1n
RQint Qint 0 1000MEG
D_D10 Qint MY5 D_D1
V1 MY5 0 {VDD}
D_D11 MYVSS Qint D_D1
V2 MYVSS 0 {VSS} 
EQ Qqq 0 Qint 0 1
X3 Qqq Qqqd1 BUF_DELAY_BASIC_GEN PARAMS: VDD=1 VSS=0 VTHRESH=0.5 DELAY = 20n
RQq Qqqd1 Q 1
EQb Qbr 0 VALUE = {IF( V(Q) > {VTHRESH}, {VSS},{VDD})}
RQb Qbr Qb 1 
Cdummy1 Q 0 1nF 
Cdummy2 QB 0 1nF 
.IC V(Qint) {VSS}
.ENDS DFFSR_SHPBASIC_GEN
*$
.SUBCKT DFFSBRB_RHPBASIC_GEN Q QB CLK D RB SB PARAMS: VDD=1 VSS=0 VTHRESH=0.5 
***Set has higher priority in this
** Changed the delay from 7n/10n to 15n/20n to help larger time step simulations
**Faster flip-flops require a a smaller time step to simulate
X1 CLK CLKdel INV_DELAY_BASIC_GEN PARAMS: VDD={VDD} VSS={VSS} VTHRESH={VTHRESH} DELAY = 15n
X2 CLK CLKdel CLKint AND2_BASIC_GEN PARAMS: VDD={VDD} VSS={VSS} VTHRESH={VTHRESH} 
GQ 0 Qint VALUE = {IF(V(RB) < {VTHRESH},-5,IF(V(SB)< {VTHRESH},5, IF(V(CLKint)> {VTHRESH}, 
+ IF(V(D)> {VTHRESH},5,-5),0)))}
CQint Qint 0 1n
RQint Qint 0 1000MEG
D_D10 Qint MY5 D_D1
V1 MY5 0 5
D_D11 0 Qint D_D1 
EQ Qqq 0 Qint 0 1
X3 Qqq Qqqd1 BUF_DELAY_BASIC_GEN PARAMS: VDD={VDD} VSS={VSS} VTHRESH={VTHRESH} DELAY = 20n
RQq Qqqd1 Q 1
EQb Qbr 0 VALUE = {IF( V(Q) > {VTHRESH}, {VSS},{VDD})}
RQb Qbr Qb 1 
Cdummy1 Q 0 1nF 
Cdummy2 QB 0 1nF 
.IC V(Qint) {VSS}
.ENDS DFFSBRB_RHPBASIC_GEN
*$
.SUBCKT DFFSR_RHPBASIC_GEN Q QB CLK D R S PARAMS: VDD=1 VSS=0 VTHRESH=0.5 
***Set has higher priority in this
** Changed the delay from 7n/10n to 15n/20n to help larger time step simulations
**Faster flip-flops require a a smaller time step to simulate
X1 CLK CLKdel INV_DELAY_BASIC_GEN PARAMS: VDD={VDD} VSS={VSS} VTHRESH={VTHRESH} DELAY = 15n
X2 CLK CLKdel CLKint AND2_BASIC_GEN PARAMS: VDD={VDD} VSS={VSS} VTHRESH={VTHRESH}  
GQ 0 Qint VALUE = {IF(V(R) > {VTHRESH},-5,IF(V(S) > {VTHRESH},5, IF(V(CLKint)> {VTHRESH}, 
+ IF(V(D)> {VTHRESH},5,-5),0)))}
CQint Qint 0 1n
RQint Qint 0 1000MEG
D_D10 Qint MY5 D_D1
V1 MY5 0 {VDD}
D_D11 MYVSS Qint D_D1
V2 MYVSS 0 {VSS} 
EQ Qqq 0 Qint 0 1
X3 Qqq Qqqd1 BUF_DELAY_BASIC_GEN PARAMS: VDD={VDD} VSS={VSS} VTHRESH={VTHRESH} DELAY = 20n
RQq Qqqd1 Q 1
EQb Qbr 0 VALUE = {IF( V(Q) > {VTHRESH}, {VSS},{VDD})}
RQb Qbr Qb 1 
Cdummy1 Q 0 1nF 
Cdummy2 QB 0 1nF 
.IC V(Qint) {VSS}
.ENDS DFFSR_RHPBASIC_GEN
*$
$
**** SPM_Mono_POS  ***************************************************************************************
* FUNCTION: SHORT TIME PULSE GENERATOR AT NEG INPUT EDGE
* INPUTS/OUTPUTS: ONE DIGITAL INPUT: A, TWO DIG OUTPUT PINS: Q Qn
* DESCRIPTION: CREATE A PW PULSE WIDTH AT -VE EDGE OF INPUT, PULSE WIDTH OF INPUT NEEDS TO BE GREATER THAN PW PARAMETER VALUE
**********************
.SUBCKT MONOPOS_PS in Q Qn PARAMS: PW=1u 
****buffer*********
*RA in 0 1e11
*CA in 0 0.01pF
*VS VSUP 0 DC 1
**** boolean ************
*EBUF1 Y1 0 VALUE={IF(V(in) > .5 , 1, 0)}
*ROUTpp1 Y1 0 1e11
**** add delay lines ****
*XNSW1 Y2 Y1  0 NSW_PS PARAMS: RONval={(PW+1e-15)/(1e-12*0.693)} VTHval=0.5
*XPSW1 Y2 Y1 VSUP PSW_PS PARAMS: RONval={(PW+1e-15)/(1e-12*0.693)} VTHval=0.5
*CDEL1 Y2 0 1pF
*ETHRESH Y3 0 VALUE={IF(V(Y2) > 0.5, 0, 1)}
*ROUTp Y3 0 1e11
* ************add rise and fall *****
**XNSW2 Y4 Y3 0 NSW_PS PARAMS: RONval=(1e-12/1e-12*2.3) VTHval=0.5
**XPSW2 Y4 Y3 VSUP PSW_PS PARAMS: RONval=(1e-12/1e-12*2.3) VTHval=0.5
**CDEL2 Y4 0 1pF
************XOR2***********
*EXOR2 P 0 VALUE={IF(V(in) > 0.5 ^ V(Y3) > .5, 1, 0)}
*ROUTpp2 P 0 1e11
**********AND************
*EAND2 Y5 0 VALUE={IF(V(in) > 0.5 & V(P) > 0.5 , 0, 1)}
*ROUTpp3 Y5 0 1e11
* add rise and fall *****
*XNSW3 Q Y5 0 NSW_PS PARAMS: RONval=(1e-9/1e-12*2.3) VTHval=0.5
*XPSW3 Q Y5 VSUP PSW_PS PARAMS: RONval=(1e-9/1e-12*2.3) VTHval=0.5
*ROUTq Q 0 1e11
***********end of AND2********************
* add rise and fall + inversion *****
*XNSW4 Qn Q 0 NSW_PS PARAMS: RONval=(1e-9/1e-12*2.3) VTHval=0.5
*XPSW4 Qn Q VSUP PSW_PS PARAMS: RONval=(1e-9/1e-12*2.3) VTHval=0.5
*ROUTqn Qn 0 1e11
*******************************new take on delay*************
VS VSUP 0 DC 1
GIN VSUP YA VALUE={IF(V(IN)>0.5, V(VSUP)/1000K, 0)}
GDIS YA 0 VALUE={IF(V(IN)>0.5,0, V(YA)/1m)}
CIN YA 0 1n IC=0
RIN YA 0 1e11
EABM1 YTD 0 VALUE={IF(V(YA)> {PW*1000}, 1, 0)}
RYTD YTD 0 1e11
EXOR P 0 VALUE={IF(V(YTD) > 0.5 ^ V(IN) > .5, 1, 0)}
ROUTpp2 P 0 1e11
EAND1 Q1 0 VALUE={ IF(V(P)>0.5 & V(IN)>0.5, 1, 0)}
Ro1 Q1 Q 1m
Co1 Q 0 1p
ROUT2 Q 0 1e11
EAND2 Qn1 0 VALUE={ IF(V(Q)>0.5, 0, 1)}
Ro2 Qn1 Qn 1m
Co2 Qn 0 1p
ROUT4 Qn 0 1e11
.ENDS MONOPOS_PS
*$
.SUBCKT LDCR 1 2 PARAMS: L=1u DCR=20m